25
fcc
He	     0.000	     0.000	     0.000
He	     4.200	     0.000	     0.000
He	     8.400	     0.000	     0.000
He	    12.600	     0.000	     0.000
He	    16.800	     0.000	     0.000
He	     2.100	     3.637	     0.000
He	     6.300	     3.637	     0.000
He	    10.500	     3.637	     0.000
He	    14.700	     3.637	     0.000
He	     4.200	     7.275	     0.000
He	     8.400	     7.275	     0.000
He	    12.600	     7.275	     0.000
He	     6.300	    10.912	     0.000
He	    10.500	    10.912	     0.000
He	     8.400	    14.549	     0.000
He	     2.100	     1.819	     3.637
He	     6.300	     1.819	     3.637
He	    10.500	     1.819	     3.637
He	    14.700	     1.819	     3.637
He	     4.200	     5.456	     3.637
He	     8.400	     5.456	     3.637
He	    12.600	     5.456	     3.637
He	     6.300	     9.093	     3.637
He	    10.500	     9.093	     3.637
He	     8.400	    12.731	     3.637


